/*--------------------------------*- C++ -*----------------------------------*\
| =========                 |                                                 |
| \\      /  F ield         | OpenFOAM: The Open Source CFD Toolbox           |
|  \\    /   O peration     | Version:  v2006                                 |
|   \\  /    A nd           | Website:  www.openfoam.com                      |
|    \\/     M anipulation  |                                                 |
\*---------------------------------------------------------------------------*/
FoamFile
{
    version     2.0;
    format      ascii;
    class       dictionary;
    location    "system";
    object      controlDict;
}
// * * * * * * * * * * * * * * * * * * * * * * * * * * * * * * * * * * * * * //

application     thermocapillaryInterFoam;
//application     icoReactingMultiphaseInterFoam;

startFrom       latestTime;

startTime       0;

stopAt          endTime;

endTime         0.002;

//deltaT          1e-9; //for CFL <1 with laser SS 1000 mm/s
deltaT          1e-10; // We start out very small due to rapid heating

writeControl    adjustable;

writeInterval   1e-6;

purgeWrite      0;

writeFormat     ascii;

writePrecision  6;

writeCompression on;

timeFormat      general;

timePrecision   6;

runTimeModifiable yes;

adjustTimeStep  yes;

maxDeltaT       1e-4;

maxCo           0.8;

maxAlphaCo      0.8;

maxAlphaDdt     1;

// ************************************************************************* //
