/*--------------------------------*- C++ -*----------------------------------*\
| =========                 |                                                 |
| \\      /  F ield         | OpenFOAM: The Open Source CFD Toolbox           |
|  \\    /   O peration     | Version:  v2006                                 |
|   \\  /    A nd           | Website:  www.openfoam.com                      |
|    \\/     M anipulation  |                                                 |
\*---------------------------------------------------------------------------*/
FoamFile
{
    version     2.0;
    format      ascii;
    class       dictionary;
    location    "constant";
    object      dynamicMeshDict;
}
// * * * * * * * * * * * * * * * * * * * * * * * * * * * * * * * * * * * * * //

dynamicFvMesh   dynamicRefineFvMesh;

// How often to refine
refineInterval  100;

// Field to be refinement on
field           alpha.phase1;

// Refine field inbetween lower..upper
lowerRefineLevel 0.49;
upperRefineLevel 0.51;

// If value < unrefineLevel unrefine
unrefineLevel   0.49;

// Have slower than 2:1 refinement
nBufferLayers   1;

// Refine cells only up to maxRefinement levels
maxRefinement   3;

// Stop refinement if maxCells reached
maxCells        1e7;

// Flux field and corresponding velocity field. Fluxes on changed
// faces get recalculated by interpolating the velocity. Use 'none'
// on surfaceScalarFields that do not need to be reinterpolated.
correctFluxes
(
    (alphaPhi.phase1 none)
    (phi none)
    (phi.solid none)
    (phi_0 none)
    (nHatf none)
    (rhoPhi none)
    (alphaPhi.phase2 none)
    (ghf none)
    (alphaPhiUn none)
);

// Write the refinement level as a volScalarField
dumpLevel       true;


// ************************************************************************* //