/*--------------------------------*- C++ -*----------------------------------*\
| =========                 |                                                 |
| \\      /  F ield         | OpenFOAM: The Open Source CFD Toolbox           |
|  \\    /   O peration     | Version:  v2106                                 |
|   \\  /    A nd           | Website:  www.openfoam.com                      |
|    \\/     M anipulation  |                                                 |
\*---------------------------------------------------------------------------*/
FoamFile
{
    version     2.0;
    format      ascii;
    arch        "LSB;label=32;scalar=64";
    class       polyBoundaryMesh;
    location    "constant/polyMesh";
    object      boundary;
}
// * * * * * * * * * * * * * * * * * * * * * * * * * * * * * * * * * * * * * //

4
(
    inlet
    {
        type            patch;
        nFaces          1875;
        startFace       2311900;
    }
    outlet
    {
        type            patch;
        nFaces          1875;
        startFace       2313775;
    }
    solidBottom
    {
        type            patch;
        nFaces          7500;
        startFace       2315650;
    }
    walls
    {
        type            patch;
        nFaces          39325;
        startFace       2323150;
    }
)

// ************************************************************************* //
