/*--------------------------------*- C++ -*----------------------------------*\
| =========                 |                                                 |
| \\      /  F ield         | OpenFOAM: The Open Source CFD Toolbox           |
|  \\    /   O peration     | Version:  v2006                                 |
|   \\  /    A nd           | Website:  www.openfoam.com                      |
|    \\/     M anipulation  |                                                 |
\*---------------------------------------------------------------------------*/
FoamFile
{
    version     2.0;
    format      ascii;
    class       dictionary;
    location    "system";
    object      fvSchemes;
}
// * * * * * * * * * * * * * * * * * * * * * * * * * * * * * * * * * * * * * //

ddtSchemes
{
    //default         Euler;
    default           CrankNicolson 0.9;
}

gradSchemes
{
    default         leastSquares;
}

divSchemes
{
    div(rhoPhi,U)           Gauss WENOUpwindFit 3 1;
    //div(rhoPhi,U)           Gauss linear;
    "div\(phi,alpha.*\)"    Gauss WENOUpwindFit 3 1;
    //"div\(phi,alpha.*\)"    Gauss vanLeer;
    "div\(phir,alpha.*\)"   Gauss linear;

    "div\(Yiphir,alpha.*\)" Gauss linear;
    "div\(phi,.*\.gas.*\)"  Gauss WENOUpwindFit 3 1;
    //"div\(phi,.*\.gas.*\)"  Gauss linear;

    div(((rho*nuEff)*dev2(T(grad(U))))) Gauss linear;

    "div\(.*1.*\)"          Gauss linear;
    div(phi,T)              Gauss WENOUpwindFit 3 1;
    //div(phi,T)              Gauss linear;
}

laplacianSchemes
{
    default         Gauss linear orthogonal;
    //default         Gauss linear corrected;
}

interpolationSchemes
{
    default         linear;
}

snGradSchemes
{
    default         orthogonal;
    //default         corrected;
}

wallDist
{
    method          meshWave;
}

fluxRequired
{
    default         no;
    p_rgh             ;
    "alpha.*";
}
// ************************************************************************* //