/*--------------------------------*- C++ -*----------------------------------*\
| =========                 |                                                 |
| \\      /  F ield         | OpenFOAM: The Open Source CFD Toolbox           |
|  \\    /   O peration     | Version:  v2106                                 |
|   \\  /    A nd           | Website:  www.openfoam.com                      |
|    \\/     M anipulation  |                                                 |
\*---------------------------------------------------------------------------*/
FoamFile
{
    version     2.0;
    format      ascii;
    class       dictionary;
    object      setFieldsDict;
}
// * * * * * * * * * * * * * * * * * * * * * * * * * * * * * * * * * * * * * //

defaultFieldValues
(
    volScalarFieldValue alpha.liquid 1
    volScalarFieldValue alpha.gas 0
);

regions
(
    cylinderToCell
    {
        p1 (0 0.005 0.005); p2 (0.001 0.005 0.005); radius 0.00144;
        fieldValues
        (
            volScalarFieldValue alpha.liquid 0
            volScalarFieldValue alpha.gas 1
        );
    }
);


// ************************************************************************* //
