/*--------------------------------*- C++ -*----------------------------------*\
| =========                 |                                                 |
| \\      /  F ield         | OpenFOAM: The Open Source CFD Toolbox           |
|  \\    /   O peration     | Version:  v2106                                 |
|   \\  /    A nd           | Website:  www.openfoam.com                      |
|    \\/     M anipulation  |                                                 |
\*---------------------------------------------------------------------------*/
FoamFile
{
    version     2.0;
    format      ascii;
    class       dictionary;
    object      setFieldsDict;
}
// * * * * * * * * * * * * * * * * * * * * * * * * * * * * * * * * * * * * * //

a 1.44e-3;
radius $a;
depth2D 1e-4;

defaultFieldValues
(
    volScalarFieldValue alpha.phase1 1
    volScalarFieldValue alpha.phase2 0
);

regions
(
    cylinderToCell
    {
        p1 (0 0 0); p2 ($depth2D 0 0); radius $radius;
        fieldValues
        (
            volScalarFieldValue alpha.phase1 0
            volScalarFieldValue alpha.phase2 1
        );
    }
    /*
    boxToCell
    {
        box (0 -$a -$a) ($depth2D $a $a);
        fieldValues
        (
            volScalarFieldValue alpha.phase1 0
            volScalarFieldValue alpha.phase2 1
        );
    }
    */
);


// ************************************************************************* //
