/*--------------------------------*- C++ -*----------------------------------*\
| =========                 |                                                 |
| \\      /  F ield         | OpenFOAM: The Open Source CFD Toolbox           |
|  \\    /   O peration     | Version:  2.3.0                                 |
|   \\  /    A nd           | Web:      www.OpenFOAM.org                      |
|    \\/     M anipulation  |                                                 |
\*---------------------------------------------------------------------------*/
FoamFile
{
    version     2.0;
    format      ascii;
    class       dictionary;
    location    "system";
    object      WENODict;
}
// * * * * * * * * * * * * * * * * * * * * * * * * * * * * * * * * * * * * * //
 
// This dict contains expert parameters, which modify the standard WENO scheme.

    //- Stencil extension ratio:
    //  - < 2.5 :   decreased computational effort. May also decrease stability
    //              and accuracy
    //  - > 2.5 :   higher stability. May influence the accuracy of the SVD
    extendRatio     2.5;

    //- WENO stencil weighting parameters:
    p               4.0;
    dm              1000.0;

    //- Calculate best conditioned matrix
    //  This can save memory especially for high order WENO scheme
    //  Increases the calculation time! Default is off
    bestConditioned true;
    
    writeData       true; // Write out the collected stencil list and matrix data
                          // default is 'true' 

    maxCondition    1E-05;// Inverse of the maximum condition that the pseudo 
                          // inverse can have. Only change if you know what you
                          // are doing!

    checkCondition  false;// Check the condition of the pseudo inverse matrix
                          // If the central stencil has at least one zero entry
                          // the matrix is removed for all stencils of this cell.
// ************************************************************************* /