/*--------------------------------*- C++ -*----------------------------------*\
| =========                 |                                                 |
| \\      /  F ield         | OpenFOAM: The Open Source CFD Toolbox           |
|  \\    /   O peration     | Version:  v2106                                 |
|   \\  /    A nd           | Website:  www.openfoam.com                      |
|    \\/     M anipulation  |                                                 |
\*---------------------------------------------------------------------------*/
FoamFile
{
    version     2.0;
    format      ascii;
    class       volScalarField;
    object      T;
}
// * * * * * * * * * * * * * * * * * * * * * * * * * * * * * * * * * * * * * //

a       1.44e-3;
length  #calc "4 * $a";
T1      290;
gradT   200;

dimensions      [0 0 0 1 0 0 0];

internalField   uniform 290;

boundaryField
{
    left
    {
        type           symmetryPlane;
    }

    right
    {
        type           symmetryPlane;
    }

    bottom
    {
        type            fixedValue;
        value           uniform $T1;
    }

    top
    {
        type            fixedValue;
        value           uniform #calc "$T1 + $length * $gradT";
    }

    frontAndBack
    {
        type           empty;
    }
}


// ************************************************************************* //
